@<TRIPOS>MOLECULE
UNK
22 23 0 0 0
SMALL
GASTEIGER

@<TRIPOS>ATOM
      1 C1         -1.5949    0.0448   -1.0420 C.ar    1  UNL        -0.0527
      2 C2         -2.9712   -0.1406   -0.8880 C.ar    1  UNL        -0.0414
      3 C3         -3.5022   -0.4831    0.3603 C.ar    1  UNL         0.0592
      4 C4         -2.6464   -0.6364    1.4641 C.ar    1  UNL         0.0598
      5 C5         -1.2678   -0.4496    1.3076 C.ar    1  UNL        -0.0341
      6 C6         -0.7317   -0.1192    0.0524 C.ar    1  UNL        -0.0152
      7 C7          0.7239    0.0956   -0.1102 C.ar    1  UNL         0.0034
      8 C8          1.1755    1.3374   -0.5788 C.ar    1  UNL        -0.0325
      9 C9          2.5398    1.5905   -0.7312 C.ar    1  UNL         0.0614
     10 C10         3.4786    0.5947   -0.4188 C.ar    1  UNL         0.0794
     11 C11         3.0397   -0.6612    0.0399 C.ar    1  UNL         0.0800
     12 C12         1.6623   -0.9154    0.1917 C.ar    1  UNL         0.0686
     13 Cl1         1.1212   -2.5196    0.6996 Cl      1  UNL        -0.0820
     14 Cl2         4.2179   -1.9206    0.4170 Cl      1  UNL        -0.0810
     15 Cl3         5.2024    0.9198   -0.6100 Cl      1  UNL        -0.0810
     16 Cl4         3.0439    3.1724   -1.3135 Cl      1  UNL        -0.0826
     17 Cl5        -3.2733   -1.0559    3.0525 Cl      1  UNL        -0.0827
     18 Cl6        -5.2393   -0.7085    0.5143 Cl      1  UNL        -0.0827
     19 H1         -1.2008    0.3079   -2.0160 H       1  UNL         0.0630
     20 H2         -3.6254   -0.0173   -1.7418 H       1  UNL         0.0639
     21 H3         -0.6145   -0.5542    2.1656 H       1  UNL         0.0646
     22 H4          0.4623    2.1185   -0.8147 H       1  UNL         0.0646
@<TRIPOS>BOND
    1     1     2 ar
    2     2     3 ar
    3     3     4 ar
    4     4     5 ar
    5     5     6 ar
    6     6     7  1
    7     7     8 ar
    8     8     9 ar
    9     9    10 ar
   10    10    11 ar
   11    11    12 ar
   12    12    13  1
   13    11    14  1
   14    10    15  1
   15     9    16  1
   16     4    17  1
   17     3    18  1
   18     6     1 ar
   19    12     7 ar
   20     1    19  1
   21     2    20  1
   22     5    21  1
   23     8    22  1

